Cases/test/data_old/branch_specific/scenario_results_case_ACTIVSg200.csv
line_id,y_cos_f_w1_vm_from,y_cos_f_w2_vm_to,y_cos_f_w3_theta_i,y_cos_f_w4_theta_j,y_cos_f_bias,y_sin_f_w1_vm_from,y_sin_f_w2_vm_to,y_sin_f_w3_theta_i,y_sin_f_w4_theta_j,y_sin_f_bias
1_119,0.8361942088372717,0.01488836199558119,0.2911419796136249,0.056346528545926866,0.20688364252573288,0.17874424835825176,0.010783631192919016,0.061755433995278726,0.01252050123996928,-0.1948499221075242
2_1,-1.6149789790556086,-1.9228212022622642,-0.4974781482276051,15.9779907570735,6.95402643628442,0.0007359725401608648,0.0007764700552958851,0.00021941745170745054,-0.0019771573357089314,-0.0021553660069241237
3_137,-1.0468443924190767,1.2039218124858975,-0.7812038176630641,-0.37993257988734686,0.7696779697727059,0.007922395224904996,-0.08440967102996755,0.05478723040358209,0.034791159708488284,0.0948498624733933
4_3,0.4578685726595899,0.04482098779783816,-0.37638863099816267,-0.3245368611368423,0.45091628731444433,-0.00029558253885430917,-2.9105053047129352e-05,0.00024296107526597393,0.0002095088113849444,0.00039160107827328997
5_64,0.5597351548480818,-0.43945761713193915,-0.19064921542434177,-0.14695496186726437,1.0058413998154676,-0.014254404573548783,-0.014677828684481831,0.041752771257218435,0.03874685373783222,0.017774130510828087
6_5,0.09077714732658937,-0.9985963762871773,-0.3416595190262617,-0.2727467288970884,2.1683166524060447,-0.0003737815429234253,-0.00011315535277059749,0.0011831629550511054,0.0011641727224763765,0.00044203889609982494
7_86,-0.045345903680361954,0.9520997394859717,0.15011895589053684,0.14658297803397335,0.14116690268431598,0.003060154745146605,0.00303668287223587,0.0010101487242689655,0.0009850790512568074,-0.00966522025528424
7_101,0.9997575779401692,0.005786078629271274,0.002087081982505623,0.0022442407595741898,-0.003621349543799779,-0.003921080449763765,-0.008309432650660635,-0.002703412872590773,-0.002770345589942455,0.007840958334133829
7_148,0.9873456933627184,-0.03129321365221316,-0.01033079563454567,0.11779158535949073,0.06089126691468083,-0.004343360891167233,0.02086436499376104,0.00701105165915826,0.0035524295506190046,-0.010204671238199141
8_7,0.8195702211055926,0.0017769990216845999,0.2705112884750262,0.2701492788349438,0.27036139446381857,-0.0003529192488247316,0.0004870178275089111,-0.00011618446235818673,-0.00011610811898694234,-0.0008970722612931458
9_124,0.24348273020083055,-0.22999090921017584,1.4691137156973761,1.6489657799440753,1.478926952638313,0.02025056358147112,-0.019230435894196346,0.12250044999173802,0.13750415899234553,0.006398044717452343
9_141,-0.017390854073843887,-0.07882517283607804,1.4953935969710441,1.770502288518872,1.640568827217951,-0.00022289041905705284,-0.0010516254610334471,0.02017360061419243,0.023884093054866783,0.0075306110313532884
9_193,0.019149762016649863,-0.11291181598820632,1.5266913547845236,1.7597997546176858,1.6375888242330205,0.0008753757097244557,-0.0018309081854127164,0.03134229387314421,0.036093113278507935,0.007304048116285936
10_9,-0.05070173275028056,0.937552388262251,0.15211762640033455,0.18166006364438814,0.16825068880738758,0.00010955155678742709,0.0010744512704043941,0.00020293913788355244,0.00023140205130868556,-0.0029527729108172023
11_15,0.5625055217515361,-0.04256447632700927,-0.314752164324983,-0.34342195478881354,0.4887717904570341,0.03126509716751184,-0.002277076816914844,-0.017500020834611427,-0.01909353743540949,-0.04662507755288642
11_93,0.5449910379346485,0.003975476426255398,-0.3054041700969627,-0.3905563089877433,0.4441511728465414,0.022153998016235136,0.00020778737318211116,-0.012417556231000224,-0.01587322316094041,-0.02812965665182916
12_11,0.04623609049725208,0.5184844893257907,-0.35103712607480364,-0.3510613500424691,0.42383726577562386,4.89163542054282e-06,5.5785471173937806e-05,-3.777445503913357e-05,-3.777705654428503e-05,-9.057860773206098e-05
13_11,-0.019901651754223204,0.5908281500413889,-0.36589440535032913,-0.3284922027803081,0.41745511295472615,-3.726556614802828e-05,0.0010763391177259448,-0.0006665676615184104,-0.0005983670108266198,-0.0014523381667408753
14_121,8.758880305279915,4.701384763409093,15.718472657225451,-4.409928549689154,-13.188257089838725,-0.24374218678458204,-0.13491171204957497,0.006285300701218299,0.12711193680981567,0.37945112447116897
14_149,-0.1687838309421969,1.008255927381942,0.05740287616916215,0.051248093183683924,0.21280295919672376,0.23070833659811069,-0.07019715883374528,-0.1633978665481046,-0.2385922945502077,-0.1903345139415714
15_14,-1.0891369189638218,1.0434467862531507,-0.6857039312077109,-0.7243966050469133,1.086075013975115,-0.0011838422165280915,0.012386214995678345,-0.008887394178237591,-0.009330516869464416,-0.031234860151026743
16_15,0.4717412530535835,0.004756163975869143,-0.3795264630959978,-0.32187770216523437,0.5362950798429577,0.0003534465167483343,-0.0009657425919473594,-0.0003415010737648757,-0.00017789120078298346,-0.0007110900926741436
17_120,0.3521297992702993,0.31558223941787583,-0.20061313780980397,-0.26239369889313696,0.3133122342095993,0.08007884206463062,0.07176745723058738,-0.045622005896835995,-0.05967169951523625,-0.17086100120169068
18_17,0.0014529588414211592,0.6052990574843005,-0.345027421957121,-0.3446408034960748,0.35819659229510803,-8.14446578104326e-07,-0.00028482127367452064,0.00016235141289927752,0.00016216952339661052,0.00034495155718526334
19_17,2.409087448330651,2.3802359285659893,7.948798418040026,-1.3065098150895498,-3.4519962367923034,-0.000287938660433727,-0.0002871893093591049,-0.00011756142101042134,0.00016211796967351984,0.0006421617335850306
20_17,0.0018599892208636115,0.606514877806513,-0.3444261125345134,-0.3453738071097815,0.3563096704539864,5.589926577641725e-06,0.0010302479950502273,-0.0005850553691151598,-0.0005866650420036275,-0.0013797026464081035
21_17,0.37829692014180816,0.37760452318826304,-0.21442420796226297,-0.21512643464128922,0.22210800773232897,0.0007494219462521583,0.0007480502790646212,-0.0004247832818581206,-0.00042617442214102,-0.0019958241358352725
22_27,0.04787461724045039,0.6098995261320695,-0.30174481102420225,-0.39621863700632803,0.3088471720394379,0.0024258911707563773,0.02434406545415511,-0.012043799271257954,-0.015750857061609686,-0.03554693042882689
23_22,-0.09375507065531996,0.9086842900369992,-0.19452441290380312,-0.19432402622592976,0.16557581989833647,9.928961915212846e-05,6.926749216156001e-05,-4.011001979795893e-05,-4.013617309037836e-05,-0.0002478817842608924
24_22,0.9285857670127405,-0.08902489957891835,-0.1347968394798431,-0.19958497686667231,0.1439358094462717,0.0013977201020938987,0.0013125022888616045,-0.0006354037462809899,-0.0006443687803362271,-0.003381589399357737
25_64,0.5003772617703919,0.5004095821785485,-0.0016032250846403362,-0.0006725028773384989,-0.0013803214152139365,0.006039110117571203,0.006491532599218825,-0.045181831013042725,-0.049705262431126065,-0.04721447983754337
26_25,0.08680715448739784,-0.012612083943135274,-0.19842255353177424,-0.19854832466221556,1.0562445870472017,0.0001569454052715261,-2.2181236604053024e-05,-0.00035876702411574934,-0.00035899448554159246,-0.00024024676749730546
27_93,0.08614626508200929,0.9934598384753146,0.06691817265735353,0.0029009849730055604,-0.087308547006955,0.04417967681586013,0.009105310295287352,-0.027279378282467154,-0.028655273238403396,-0.07415148373769312
27_158,0.5071778980682543,0.4998546108778996,0.010339551514122247,0.002849728719927752,-0.006537921044514228,0.008081443121364964,0.007964872348285388,0.00019030238265481609,7.095542269385533e-05,-0.020139212833300706
28_27,2.379495511390256,2.2185219106592187,-1.1438716686213,7.930388456565375,-3.3343414256390784,7.699161015166524e-05,7.623965443163211e-05,-4.025744297335246e-05,1.5282393203315469e-06,-0.0002736527918504754
29_140,0.8435088083747714,0.003158748494822561,0.2636085738505064,0.21197715206257714,0.23163513927134982,0.05782183369480945,-0.00760816937553449,0.018072209984729165,0.014528774627640238,-0.06588865712938141
30_29,-0.0021996727992630305,0.8386463218651143,0.26762584736471967,0.26159915847585447,0.2463152132537787,-2.5760720010376513e-05,0.005474959210217872,0.001747147807574759,0.001707801661691322,-0.007572114789509345
32_31,0.9927812580561178,0.006266267077444265,0.06016739670404603,-0.06356101741660655,0.0007854329957002193,1.686990495158432e-05,0.0002147904089232661,-6.385931713244408e-05,-3.90806862807079e-05,-0.00029487454333462917
33_31,-0.011324653660148343,0.9247448665545585,-0.21640961528007618,-0.16291244593038334,0.06366387244319793,5.0092310126414845e-05,0.006129616289519884,-0.0014344388237251303,-0.0010876916080929868,-0.007558818952822151
34_54,0.5405646564015935,0.5028525412514823,-4.236681138089625,3.777406262141004,-0.16944864120237124,0.022618561798435674,0.020599629688216464,0.05324023097625351,-0.07170417138227672,-0.06666114668288357
34_137,0.5205851165653248,0.47810450757220563,0.03381863550824579,-0.02347616587774906,0.0028057444058462444,0.07024997469258044,0.06451137041413542,0.0030750863056048412,-0.0046539102518158085,-0.1455144382710874
35_34,0.9811275457176469,-0.028316756209532334,0.010583701095335213,-0.11551399048074548,0.03835189722746568,-0.0004183383998671089,0.012694239026899961,-0.004695124716142933,-0.003207581479211379,-0.015819043683957004
37_36,-1.0015066992265191,0.5071187102360503,-0.614848976766073,-0.6148991441565241,1.6111589461902218,-1.3861851626249008e-07,-0.00010981695331590517,0.00013332160957424229,0.000133303880493962,4.5933411441447964e-05
38_36,0.2872989568653741,0.2898247804686649,0.0071611895786775626,-0.35557335524668604,0.4557123006421139,0.0004048341935652122,0.00040849446165045514,2.2343051386564247e-05,-0.0005012858447823751,-0.0020690020123092013
39_85,-0.017451714799463336,0.017475198606358905,-0.4595159226247485,-0.3887315371899632,0.991925158389859,5.10091859708961e-05,-0.0077516296916870925,0.10279260782535256,0.08695531682751526,0.028898557349685557
40_39,-0.3194234414312669,0.6791872441094527,-0.24098409165741036,-0.23993591037635442,0.6418233438480178,-0.0005096467107812421,-0.0004813000208258748,0.0006588242492994688,0.0006576639287843539,0.0012811043939933387
41_100,0.004188586849847853,1.0000648627940374,-0.02810320414414702,-0.031232120564740166,-0.022976891211033523,0.0050296381771844645,-0.00017263297169206897,-0.04089576331052003,-0.0439224075779663,-0.01805754372885604
41_163,0.006484655499155972,0.004767816295799102,-0.05272511921775534,-0.05272003621995752,1.159560141212292,-1.0351320637209894e-05,-7.610765941776609e-06,8.416401067553048e-05,8.415589679191549e-05,-0.000579516985151243
41_180,0.03725672485789486,-0.979079692023239,-0.28550233474409614,-0.33653135807482987,2.2239749479649515,-0.004512136199272425,-0.017695168404230924,0.03675373228064162,0.03423966253710311,0.018486694754675008
43_84,0.890670059024285,0.0006880490281683249,0.17333822316306607,0.1693702236943654,0.1592092179446587,0.11134383834204734,0.00804192730218764,0.022164963340411077,0.02067189508866705,-0.14243234687357267
43_132,-0.021018279477018176,0.9911852709897937,0.058336055364555967,-0.07151986472123716,0.03425157273322843,-0.12520201214323043,-0.0028656728667874193,-0.02306840286393141,-0.05851432281162803,0.15069287412339125
44_42,0.49914843268343567,0.5004274097727778,0.007984736390069413,-0.004087298611479884,0.0010177963229300868,0.01302391726595628,0.01638898688436826,-0.10556151063805418,-0.12931610963753926,-0.061444858242658204
44_200,-0.8275084696912895,0.8915197086517591,-0.8325521403368082,-0.5491037491845957,0.8380497387910087,-0.045138933629362415,-0.19450908600716707,0.15343757505828798,0.09156548291162363,0.2930775068956446
45_187,-10.940993815430485,-4.684680630134903,-25.827183035657562,-11.38808489862597,18.379823459718203,0.02164627693691476,0.004594097178306658,0.1987820820568889,0.09590662982349352,-0.030737627093320872
46_45,-1.0307831765714959,1.1317953845005575,-0.6384881483324082,-0.39329028185901954,1.0109867656733482,-0.002047300905568733,-0.17400661618167834,0.10317949730207049,0.06551400194111673,0.19840957667820575
47_54,-1.484904262857048,-1.5304296424984054,-3.984295081751415,-4.028897800586888,3.540184257386372,-0.017721619289511742,-0.018303471208429935,-0.01540240025246084,-0.015858742436027987,0.04275913354285128
47_66,1.4249774323497169,-1.0976216481154637,-0.439865622347027,-0.645363298334068,0.6392322224325937,0.023501776070253413,0.0018379575167083995,-0.009720552746512304,-0.011865987819025295,-0.03839814015352096
48_5,0.5494684511505583,-0.45239879727904075,-0.1534559811391969,-0.13367434051178667,1.0249802025623171,-0.005358028524184197,-0.004920662583413837,0.016492699383968093,0.016026259033741285,0.0017190398544307608
48_74,0.027123554512683834,0.02747883795132837,-0.11126342069091823,-0.1154226849426879,1.0677267064970848,-0.0025141648951989004,0.013184646544202523,-0.021705384084294795,-0.02252391940186138,0.0028783817483060362
49_48,0.5534194218729211,-0.44655800487630437,-0.13317911064177146,-0.131544589282789,1.0114059307822634,-0.0008603398716762055,-0.0008541571831813046,0.002125261066721269,0.0021119600200314205,0.0093318597001425
50_48,0.017822964942600827,-0.01827453261995724,-0.1988171668628808,-0.19769345098645963,1.1296879713880958,-0.0002155430179397082,0.00023020060559359584,0.0024551243721889944,0.0024412504444901425,0.005643732363096115
51_48,0.170146337965972,-1.0015646258246498,-0.31936276667414865,-0.31790122057549597,2.071484247494946,-0.0011472612853712844,-2.7348541442061064e-06,0.0021694884695736315,0.002155107744012977,0.009785169895460745
52_48,0.08421106311488724,0.006901745930906131,-0.17705833420022526,-0.17451073992980748,1.026524747977432,-0.0010528188069573938,-9.531573770074522e-05,0.002213368958075226,0.0021818129576370955,0.0066250566849979965
53_48,0.037569055962995146,1.0013918306407121,-0.04015687212775895,-0.07126436619095845,-0.04744516861102266,-0.0012085494140583052,-7.833652957851779e-05,0.0021259994644771654,0.0020878597145580964,0.017269045457897834
54_66,0.7042665968233499,-0.05339787925324263,-0.2526630416680468,-0.3367548735942131,0.3268923354541158,0.04657602892082574,-0.011136720797471956,-0.01576442186874615,-0.021800123622383056,-0.05752178545286117
55_45,0.5112838122964607,0.42744049615062496,-0.16825916819646955,0.01616443377599086,0.06635114838333389,0.004377653101254415,0.003662845276307983,-0.0014441707542854753,0.0003626678480570045,-0.013801018731264773
55_102,0.4379892423871702,0.47361172808994084,-0.1416315313860747,-0.13988300710205354,0.0945866687236725,-0.0050769908481667885,-0.005489912026130444,0.0016417343602775473,0.0016214661871612646,0.004206713637472022
55_112,-0.05528017655048867,1.0003361690804387,0.018408308347512836,0.04658653149244686,0.06829927034204641,-0.08036072837207726,-0.0009385098421433591,0.026031636098246318,0.022197963832136187,0.09928629318044815
55_128,0.902760443743518,0.005394489706715633,-0.29226136779298906,-0.2444239241636445,0.08491264442450186,-0.07870063814642542,-0.004574388257319303,0.02547731464660629,0.021178852315650476,0.10625272215591502
56_55,3.806209208437792,7.219841165657002,32.32829568621099,-2.2085154888402334,-10.454416696164818,-0.03324696375548604,-0.060158080726699724,-0.2531797526543041,0.01846090809034994,0.09127615706253676
56_103,0.4778595594345971,0.4723636459373264,0.02261709688822655,-0.16502563995193434,0.05200516294575186,0.00565848397952811,0.00559101503753458,-0.00047089854933513725,-0.001954417649453302,-0.011766274319774957
57_3,0.3064543889540152,0.27375358688763674,-0.2696422773789338,-0.21912229705256162,0.39469911918166656,-0.06392112152809358,-0.06432707568550063,0.060079864056962945,0.048436128537528475,0.15463059636262846
57_159,0.9863593519271325,0.05354999517580189,0.05294218519394289,0.040306588849051916,-0.030017531595402325,0.014983010087807183,0.05393470813861199,-0.06909236050596321,-0.08153428085308834,-0.0976679608436613
58_36,-3.932724917061859,-9.030727067403804,-15.621897150335155,11.416953838638554,15.901523828492447,-0.0787402459565732,-0.17956344525252954,-0.005818927754718456,0.22249378184070812,0.3266043759044951
59_119,0.49989424204587907,0.49103291646238556,-0.007857596102293439,0.06977746567339377,0.01810716300571502,-0.09252020468556052,-0.09080505096055162,0.0014513147042857892,-0.012906721713167563,0.21174698000799205
59_139,1.2924070675407373,-1.1591945248214812,-2.2311285632167945,-4.309103668222671,0.22561360459045132,0.20150584066133465,-0.18060190717223099,-0.3477402266445033,-0.671618723503757,-0.1498789788862256
60_97,0.05247898913091309,0.9224827457168304,0.09613905948478213,-0.35276545136431725,-0.0017986532922549259,0.0031394596940349517,0.31378171755815265,0.03362458761972952,-0.12184324475081408,-0.34844066578935157
61_46,0.055622493065469736,0.9986889845113927,-0.0012650100135650488,-0.06629586192900373,-0.06836736966096191,0.06814808240672307,-0.0018584680967626693,-0.03857140390750411,-0.04185979078828193,-0.0852035463984248
61_103,6.4267159175197355,8.897921664528289,32.45892296520275,-3.4011481352671415,-15.338860226796282,-0.05423099609587766,-0.06689935670792983,-0.007589281383924014,0.02370704610272862,0.1374081327446778
63_66,0.4883523751487734,-0.08408191061444681,-0.46764179122871147,-0.3648902383623243,0.5789182090996285,-0.1445742453279443,0.020647356704842967,0.13896560303758201,0.10828231194475499,0.16852019338850868
63_184,0.17122855415795674,-0.022495399473227692,-0.18458430430042166,-0.25342995411026326,0.9456608465419951,0.08743478275009925,-0.011834776696687588,-0.09421146740664593,-0.1294096263837116,-0.11585089186500458
65_64,0.09924756783518807,-0.006935040207101187,-0.20383952681950487,-0.19530603875759997,1.0450102319454393,-0.005846876856679063,0.06286290811049657,0.012358964156060994,0.010019330338877764,0.021530624841578472
66_158,0.031240765162496187,0.5743343542049697,-0.2997544966659006,-0.3853800025376277,0.367503050756085,-0.0008861696872888083,-0.016617327593568577,0.008671743098844836,0.0111524964000205,0.024255671026588453
67_66,0.370280397204949,0.3716554516575391,-0.21904576404395512,-0.21852455246738892,0.2427965181296422,0.0009730418423837322,-0.0009736061027667022,-6.107672066152158e-05,6.0308494149419374e-05,0.0021626049157442992
68_66,0.607699302125606,-0.01631883088977143,-0.3662481615421838,-0.3171325347658973,0.39401387538261834,-0.009835816477760695,0.01582995665778316,0.0058785929797429744,0.004119387564435719,0.016500955528772877
69_66,0.5838131724879982,0.00836613775695877,-0.382010787941703,-0.3064797207594699,0.38679161438021525,-1.055320758510671e-09,-1.570329660887317e-11,6.905009414601875e-10,5.540409392560366e-10,0.00811054326047011
70_66,1.3200700395985292,-1.0754011082089492,-0.6429148194700075,-0.6252891500301333,0.7312302734569054,-2.1486627866433806e-09,1.333728132552864e-10,1.1487238838107589e-09,1.12037849427633e-09,0.016948775474266767
71_66,0.3766843894898305,0.36425421501996375,-0.22014140043297895,-0.21779565688892866,0.24431776071911815,-0.0019774247530869042,0.0019241505013011771,1.569643160064557e-05,-0.00010643084715464198,0.006993690325345448
72_66,0.8989016312896074,-0.1300287215115642,-0.1962923677620782,-0.19453813652733204,0.22022128627719506,0.002003557589723602,-0.001897538860189739,8.977115080405944e-05,8.962447996016981e-05,0.006280609787304987
73_66,0.5854139510015784,0.0012023986900716044,-0.3871349571241277,-0.30858794289968167,0.3940540097562262,0.00451862097304544,-0.00772032740487902,-0.0034753746714477787,-0.0019035791460237,0.015598830448310431
74_190,-0.0006822932523061764,-4.205704951401601e-05,-0.09818961304921757,-0.08881421323940489,1.128159579526331,0.00047039139905091787,8.146978428170103e-05,0.059585804709436585,0.0538965261438937,0.01768780250114086
75_157,0.05196180686535379,1.000507522292104,0.07655618764236768,0.00765582761503171,-0.05523840249429246,0.16158428834492677,0.006251340055290863,0.04087129273293886,0.022592034511445584,-0.202430761034957
76_75,-1.0171487359833353,1.3750434748297384,0.41835660936818736,0.2929708318607468,0.8286677168311628,0.007761922266942054,0.0010045133643592392,0.00030783240625092707,0.0007470962609208837,-0.0009841021214297817
77_75,0.34268605466950397,0.5482713569685256,0.16411237579188917,0.0038943276536949067,0.14317805763302882,0.0028850793398024037,0.0046193736831979405,0.001384495562097815,0.000314724891362538,0.0069366288491923295
78_75,-2.0065454931342,-1.8936384709436256,8.04608167918758,8.04608167918758,7.28430050441878,0.0,0.0,0.0,0.0,0.0
79_75,0.4920088444748203,0.4902182258928286,0.029183076502568225,0.029183076502568225,0.02642010202780165,0.0,0.0,0.0,0.0,0.0
80_100,0.04696630044209482,1.0005837160680229,0.11908782957925308,0.08280325894260358,-0.04127974107593935,0.08853353720915697,-0.007595874888218988,0.22448580043914698,0.15608778771410795,-0.04031279990368075
80_143,0.19369700607244955,-1.003682015018459,0.4865164668010328,0.6401138756382834,2.2486482273362034,-0.052626458387033476,0.0011048809264878195,-0.13308075323704627,-0.17545244420257874,0.014784763560151926
81_55,0.2772780659533943,0.4418143153286379,-0.2524490384508228,-0.14286843605389443,0.3090781149173615,-0.10721016777567993,-0.1708284667566962,0.09760997024435017,0.05524039179414047,0.3055128631141733
81_178,0.37111540130463255,0.1842167779989175,-0.34189121428073,0.02762294795253939,0.5049701204156141,-0.004845089959935628,-0.0035622124173705742,0.006655467054160404,-0.24305838023548473,0.009997564819676579
82_81,-0.9987704594366902,0.5896537678063912,-0.6849541752281885,-0.5366238535881247,1.5624260703101354,0.00030594134613901036,-0.09724484582724525,0.1130938673169889,0.08852365663813294,0.11276623687432892
82_195,0.019153520011231495,0.2133761176051295,-0.27413826078813935,-0.3063637481991493,0.8505960408592397,-0.00176140050625323,0.025282770531863046,-0.032483617997721814,-0.0365515607273368,-0.02543488119444167
83_36,-1.0388595214464527,0.8990305672429779,-0.6427190053687658,-1.0894110278771243,1.1702925965969655,-0.022490345551309493,0.14055402837304132,-0.10923802335000007,-0.17046536446569904,-0.14346945410320494
83_146,-1.035308254940193,1.216803358342451,-0.5106139086087078,-0.6903033808918948,0.8626921825241421,-0.0005869676561189967,0.017503370158789718,-0.00824895579152548,-0.009933523750823481,-0.04232281190154795
83_186,0.5042045800685523,0.5004983392749538,-0.006682691526122331,0.015628849344997586,-0.004640581029185631,0.05188037245971598,-0.028793676956462254,0.3825750874167962,0.2436920252252666,0.0418061034033574
84_113,1.3381746715213811,-1.0622362168281339,3.5934536094839205,0.7970838060079948,1.237477632833767,0.2409001670508382,-0.18431723800211186,0.63631277133977,0.1409567955057074,-0.0035936714551510415
85_120,0.00018908808136008926,0.37102604078294543,-0.35502370658388194,-0.30827548329492394,0.6110051248014097,-0.007812278817972099,-0.05591365717942996,0.05350767968208908,0.0464620085101779,0.07636516844065859
86_101,0.9953276086921177,0.012520134410139772,0.004347948321179795,0.004327643368749551,-0.006992886067539228,2.306493856022926e-05,-0.017018126667501177,-0.00539471395919514,-0.005674001191910415,0.015602030840508405
86_193,-0.5182100997876686,-0.4825152619802998,3.0550850325623373,3.0942208684153067,3.016135063940226,0.0020619142410327617,0.0018482067342658153,-0.018153043265679073,-0.018385090899633687,-0.013187325068915018
88_87,0.3537544874272912,0.3659530966898199,0.012117541080385652,-0.3229924257495004,0.2729238819657116,-0.06796863459282831,-0.06878933227912162,-0.12613716078111625,0.06125598825350158,0.12113282987076265
88_150,0.4989276455581684,0.5183105628716803,0.006181961305233019,0.012673355555340049,-0.01667912011250361,-0.014428966387169846,-0.014987820983706778,-1.775050586737964e-05,-0.00020647439281790136,0.024660339186285775
88_194,2.9356598741243563,3.1802707414429614,7.976017568982599,-2.6571974658515978,-4.9578825415371135,-0.020962241309084167,-0.022477351138090115,0.00039103267476257864,0.01902530303222283,0.05774467014577539
89_95,0.013556323183571306,0.051683979257843946,0.23266003086167084,0.1742943613382879,1.1449715407498773,0.007163943781976934,0.036513500275287686,0.16451025391495736,0.12312995865967155,-0.020400026957465674
90_89,0.007351419180784968,0.008000819974659762,0.263066774119217,0.27379390899062234,1.192145898376095,0.007679593284960671,0.007629991788967921,-0.0038545303260416447,-0.004488698827099806,0.003560303283081743
91_89,0.4980169377866266,0.4966444759348442,0.01707771354962012,-0.014115653163321196,0.006389235283013495,8.072692388634945e-10,8.607535947803028e-10,3.703376799190697e-08,3.8384337273164975e-08,0.007686736049910598
92_89,0.5030950110364314,0.5056815530435544,-0.0023812939082207274,-0.0023812939082207274,-0.01073964498903468,0.0,0.0,0.0,0.0,0.0
93_191,0.7515518860815523,-0.27722852935808473,-0.15309607858060592,-0.2255499177871207,0.5730603248167027,0.1010043728546238,0.08844649019856234,-0.07339049810142464,-0.10218074581576617,-0.2432113608395315
94_93,0.33978058132345457,0.3521244274343246,-0.23293595093005962,-0.2286331821254579,0.30585287551126905,-3.3006437130831965e-10,-3.4155776235960095e-10,2.2610753647661703e-10,2.2194620005802475e-10,0.015387465945444682
95_58,-3.5238174607774186,1.6763825874235927,-9.03589151433512,15.807347777821587,4.075546009374371,0.11325990201135322,-0.0639014181628795,0.3527351034898213,0.007038897598111771,-0.02603200458939781
96_143,0.09889621201298726,0.09536200529642909,0.14318106957832427,0.24867551899495086,0.9810092650626782,-0.10060938560665683,-0.1282533713909624,-0.16863105882394352,-0.2928621268099153,0.2611016944468679
96_188,0.5162855559169571,-0.4781638127274487,0.08100241319744961,0.10226155027289091,1.147201899390661,0.01492492006875043,0.01876722046586994,0.07065277538430836,0.062185761154087534,-0.036517884467666344
97_200,0.20144719160244695,0.1664681104909128,3.959951320522273,-4.064536942661413,0.623952579616539,0.08622985437242497,0.0876155610084266,-0.026557200400997388,-0.02833644185159532,-0.1825723263117326
98_123,0.9314413931107381,-0.011498902217889184,0.20288249509935793,0.13498290862202042,0.12751947209907577,0.013292239135759332,-0.01569113347083883,0.002898067949650481,0.0009600538682811386,-0.012994322831422557
99_98,0.4794452079320093,0.47370404257124976,0.10832856587359685,0.10309470090295206,0.07477313114534034,-0.00015997824520419575,-0.00015806256945095795,-3.614639084348252e-05,-3.439998787649697e-05,-0.014777342929095248
99_142,1.7586138714967348,-0.9434767545593246,0.39631371853461034,0.8472507138454084,0.3340101651284957,-0.12278020021441123,-0.0036529769944915746,-0.027693506799627836,-0.054799012843554123,0.15594611756233606
100_174,0.0009946658563120825,0.0010427334016598403,0.02237181803055982,0.022742392447995707,1.2050592046140294,-0.008260052659634299,0.007323860447482372,-0.010417022596719859,-0.01059268562421184,-0.0175898248960446
100_179,0.9992808836613879,0.0035702726466392554,-0.031042180300896005,-0.027055503595386332,-0.020351125012795235,0.00034508461359512854,-0.010263209530090708,0.09026175689268422,0.07833431374823625,0.013379895010498369
100_184,0.010934652445681814,0.011161530402140626,-0.08143665570348001,-0.06635900074117895,1.1532985244750857,-0.017636536189946928,-0.017574267803239712,0.12977078866179542,0.1057440355377767,0.08102393053489143
101_117,-2.2826735249260786,-2.2194359502917638,-0.5979480935028326,15.85375452037995,7.935661670122771,-0.02399743304900378,-0.02539695670112177,-0.00791921497128681,-0.00016620629969320462,0.042782075309815266
101_141,1.631497535509652,-0.999189086754821,0.5412509285096692,0.5351783839340886,0.5479821688154847,0.004028221346402624,4.684260797172945e-06,0.0013391520364891582,0.001324038528829536,-0.0036219939275559487
102_45,6.562680138778454,4.435675244684246,-1.9422391595510895,31.387380210880064,-10.778351532105413,0.009825722642088327,0.007564451951565711,-0.0029019794297454916,-0.003745364139964664,-0.016641012143872546
102_128,1.7801081770804732,-0.9838928614904465,-0.524764473256601,-0.4755041445315789,0.19695778235520356,-0.07483914687312143,0.007199284891142507,0.02207414578018765,0.01893210858323625,0.09591094968667956
103_102,0.42718036383678915,0.47633134730833543,-0.14949490412224234,-0.14068625687793182,0.10229065326114095,-0.01633322532161923,-0.01821251134640165,0.005715932098403638,0.0053791337986696325,0.02300888320784207
103_106,0.4446480038461229,0.471594679805481,-0.15560783296799535,-0.11957581576266824,0.08428278096241759,-0.03550569172001642,-0.03765741704255548,0.012425477453607208,0.009548276422956888,0.1010461554873199
104_102,0.5463869138913593,0.3547189315797576,-0.12604592236018097,-0.10476757200569407,0.11434539971187863,-0.0027575973331549026,-0.0017902551376594474,0.0006361497512449516,0.0005287585954546871,0.06466414040144332
105_102,-5.522636019229404,-1.2469204055357799,-32.10352051632317,0.36828263659495636,10.720677493870797,0.3768258501342716,0.09592722543912348,1.9941268712877194,-0.02833246721211463,-0.5627892846436573
107_113,0.9984322127765513,0.004253872139516446,0.047072755727838894,0.04766347420916023,0.01051562386692928,-0.018595593381579886,0.0076707932382590535,-0.0013612022111522141,-0.0013723092639116052,0.00045992186735398753
107_129,1.8286395617345157,-0.9968670786484823,0.13768858217806537,-0.2077787858677521,0.19719033379298,0.10085418965526818,-0.0002948047730263609,0.00416947639012284,-0.011444656661372994,-0.1269777036782194
108_75,0.4685818555170985,0.4361423140910534,0.15869269345527873,0.13280859297594488,0.14056183217016693,0.027618353086621424,0.025798411706084216,0.010772983567016916,0.006473263198080566,-0.06925304472721715
108_198,0.7659523326686063,0.03899502007980926,0.30541036304560515,0.2968652913787041,0.2883661499797454,0.015434954181162577,-0.0030646836888564132,0.00639490302683589,0.006220026953096533,-0.008015892347483351
109_17,0.412889858958959,0.38691545645064174,-0.17316226735778126,-0.22043100000773702,0.18054210835325546,0.06407615799907324,0.060045204264218006,-0.02687296033540471,-0.03420856985928885,-0.1286571505764938
110_101,1.0090454697802418,-0.006873273541829872,-0.0021136562407260695,-0.002304607513106266,-0.0030813699161627017,-6.095230292624368e-05,0.00023057688055970861,7.692462845708464e-05,7.691469248918396e-05,-0.00029159862706942406
110_193,0.4500774109581953,0.4515560157835618,0.15184463365361012,0.14597342832387392,0.14755340479412182,0.006873365177089289,0.004932280812213189,0.0019880039554534164,0.0019112192558749662,-0.015046795075506561
111_175,-0.19928708902406772,-0.45271937865366385,7.9776260119137525,-7.244555816074597,2.0477300642019522,0.0014470626001461817,-0.006642595492443615,0.0017151676962407214,-0.10587859355136564,-0.007349426682794356
113_112,0.4924266083776042,0.49832711419071635,-0.00548475737020811,-0.09610961403058822,0.005243644224261157,0.06533638494342357,0.09744161243748921,7.376674239406144e-05,-0.015299292183529533,-0.24305164986737715
113_192,0.98547390467263,-0.005848763654485167,-0.03762817303099336,0.0033104638314957746,0.015366166893177047,0.029068704790221653,0.02905363161007223,-0.0003992452871943111,-0.0016405967485327228,-0.052784885403316564
114_112,0.022659308202190642,1.0011912699252592,0.02514856524641996,0.025656128649974803,-0.0241615549246319,-0.0016474205475237212,-2.5622928754542992e-05,0.00039510104395396864,0.00038619020329367667,0.007895541571737281
115_112,0.8434344630063688,0.004997241361505478,-0.19789816698624232,-0.1724168463778667,0.1654553138958781,-0.0013979098741232468,-1.1654271436095111e-05,0.00032799504492101404,0.0002856580233547086,0.08519334124838472
117_116,0.7999752676481594,1.0549847415349585,-7.727109711252452,8.3982880456955,-1.097586375170434,0.056917716378113464,0.04568593605510373,0.13467316988542838,-0.1049748465887245,-0.13778523963143097
117_132,0.7583105568666425,0.03828231717932307,0.31683897616827283,0.36361991579981695,0.30362936470460056,-0.0427177589398735,-0.0058627918205976515,-0.01760817463669705,-0.02024484110699786,0.05927814848328662
117_162,0.5339975867090263,0.454678572486604,0.04519751515075818,-0.0669484000852291,0.011403014938470735,0.13356398633267078,0.11372399079724554,0.011321886960975434,-0.01672798723744568,-0.2948772169116706
118_134,0.9916737844438255,-0.08831200260506411,0.03408799792181294,-0.08264362343963162,0.11871232882277027,-0.001540382965035253,0.2114104195657023,0.06593365702833995,0.04915065971832443,-0.2627856476382918
118_198,0.047695865568908036,-0.008791950562337503,1.2002833879696682,1.7812063346464984,1.4340545320530447,3.785814112984585e-06,-6.428648828348193e-07,9.410972516410885e-05,0.00013965052203237762,0.0016033089903281024
121_178,11.385341811277483,8.923840461194605,-11.056191896428126,16.227207891245104,-21.898118851735383,0.3786378562930445,0.2902168540756479,-0.3630779095680915,0.008056691082583445,-0.7573805249136552
122_46,0.5027964467327977,0.49703978645103225,0.008619270484919561,-0.009938253983822753,0.00016238214509667337,0.06842316933259343,-0.07118581075219359,0.2436476241429821,0.15914075687142215,0.01313601813586392
122_96,0.0036851065854243137,0.0034603522721238355,0.03282464783252395,0.05386248379217953,1.1709783460348124,-0.014291595147557568,-0.02933308505937765,-0.20040958278782595,-0.3288620359040106,0.03722913625250069
122_121,0.0007516037087160199,0.13811296905342202,-0.25551141845646513,-0.1303611970171422,0.990141174990314,0.014651080056335697,-0.20345251570224343,0.37637451598952903,0.192031273304157,0.23274955196281172
123_133,-1.0223188474829088,1.9627437377065582,0.22997105620769945,0.16559020649058123,0.09447794122662545,-0.0004944766792959673,0.031159680876933146,0.004633074165714133,0.0036078001566874434,-0.043292645359761364
124_1,0.006141899340843415,0.8431223274059216,0.279739285167804,0.1970537553608907,0.22847103712316053,-7.704005614225101e-05,-0.011001690772892897,-0.0036504415969700723,-0.002571111708427829,0.026056478067473552
124_29,0.016953306323846395,0.809611200581657,0.2630506895733364,0.252751093620707,0.25947555166214065,0.006941633610760514,-0.03983000782264312,-0.013425427831220384,-0.012433842641366037,0.04826930305809296
124_123,0.47869570630382074,0.4628502328349079,0.14004511453586968,0.09508653782648613,0.08931786672318487,0.034206849517945156,0.048526117168984736,0.012799390600818892,0.008845997142633493,-0.12247285626605314
124_193,-0.7495153500202709,-0.0666263792857776,2.926369811287434,2.9465596877752915,2.73537658711605,-0.00200218875813956,-0.017860843415880946,-0.06678107424836702,-0.0684732961227547,0.027390335482545908
125_123,-0.03440518774561252,0.9538155886565496,0.08753160015955751,0.12998283930081916,0.1157664317104452,-0.01549663459080507,0.01573562788001894,2.3566659198070083e-05,0.000999907908388967,0.04055046336369351
126_123,2.0803569925967564,-1.0194127657101753,0.4670034798740151,0.2909106400227579,-0.05799388828650853,-0.015257039128918404,0.015737683929871554,-0.0034236082972013,-0.0016161138968999271,0.024986235414919712
127_123,1.000934168779688,0.002061961409890123,0.1399384846943556,0.07807339915294076,0.004151303009767293,0.0007570333314144114,0.0007541896722209442,0.00016367841760918432,0.00016435438444057122,0.010376137691601648
128_112,0.47645323516942095,0.48114152913892555,-0.09951390189106347,-0.10188164425049517,0.041599263483197646,0.0006764102634180364,0.0006855380048390574,-0.00014157305987523062,-0.00014486386334948255,-0.006240102452781197
128_133,-0.0014117598943222953,0.9060865592247083,-0.19712499069269016,0.11159435296192664,0.1080165795064203,0.00046005379332836327,-0.3832893801318753,0.08338282554688367,-0.04721482626820092,0.48377437982904714
129_128,0.37654156347538037,-0.27885955193487855,-1.7603845524405057,-3.2316702618017157,0.7688785784538451,0.017625759008713673,-0.012996082067702235,-0.08224916279410632,-0.15098994599688673,-0.06631031131657816
130_106,0.010139827785667577,0.9131438274548223,-0.22778681273127796,-0.23134554392744194,0.059455629480812844,0.0008160548755571512,0.06203082157325365,-0.015465894549360074,-0.01571557161916432,-0.08704663898471296
130_144,0.008522237582265113,0.9030159104048232,-0.18781801666382802,0.04973595249313656,0.09925874102737975,-0.0020162072862743297,-0.20740725404952132,0.043134879421515,-0.011423489597203228,0.2755515713232
131_9,0.7720171889169504,0.011003533645406072,0.33056908684447994,0.20176922486906354,0.31097393369101034,0.04746151188203662,0.0008155813379854479,0.02031398740401278,0.01241292837157564,-0.051441623838455484
131_118,1.5322763711671952,-0.9764679054539442,0.722254511380956,0.312330015780312,0.6448559539312426,0.060996249494343735,-0.007189207289047601,0.026754372549363505,0.014408300642522145,-0.0696596177436216
133_116,-0.8258005709405437,-1.6349578504029403,8.152757335737656,7.917160748328238,5.2971096771520285,-0.029775312063438655,-0.02490436349295405,-0.12339962451245401,-0.12485236983262979,0.0637193882024652
134_60,0.048104788095609585,0.9922015233162536,-0.0514529437442157,-0.05786216750084956,-0.05287395962058916,0.17531685560087906,-0.012208346212745913,0.038295217899707745,0.015844658268959345,-0.16166113508770394
134_133,-0.8618873034193617,-0.8298161087247743,8.002370198417577,8.032832338778153,4.395031482127152,-0.03979846375887366,-0.038709815903149675,0.123749684355751,0.12372630404370513,0.0951752893223512
134_140,-0.05373595184051283,0.9978807172518498,0.05792112600399239,-0.014415337279598137,0.07681008139645495,-0.12443274959754877,0.00012265998918946364,-0.010777381702156832,-0.03588657797455101,0.1622263249434331
134_186,0.8339135986557636,-0.0032905243906169446,0.08856918655469652,-0.19914641349411855,0.1827301668156831,0.44704495403725925,-0.00973494552376869,0.04698288833244545,-0.10675959137682198,-0.5054283170018056
135_133,-0.9700817312522669,1.6673557551245552,0.25085696647933237,0.4515687527142591,0.42063063400549305,0.03074881052935677,-0.024149995356116803,-0.0036315868169353245,-0.0075849500463436356,0.035816599800072534
136_133,-0.01071501338559977,0.9165326466984015,0.14256457601671677,0.11264050491603839,0.1309537828248155,-9.874647601450866e-06,0.0007884047064174054,0.0001226345011688763,9.685263529487655e-05,0.03578317032165191
138_139,0.3840896229790307,0.38259984984502426,-0.30045635168977425,-0.08000686942558002,0.2326692061022143,-0.23115053005184943,-0.24585920087272659,0.18692665719560925,0.0497744203041263,0.6037855718580623
138_195,0.9956144280682179,-0.03937438949232275,0.046025562707883105,-0.010887978026968392,0.05560309336060598,-0.0051192109817989745,0.05577459482740511,-0.06550390236412428,-0.07246057055799678,-0.08136332494160801
141_148,0.04475940832751535,0.767084855800028,0.2612868399971055,0.341109679074514,0.292937368817179,-0.0060967317382731555,0.027968939485894823,0.009526124929906338,0.013399246065204554,-0.009893397599563543
141_193,0.020142535866239486,-0.022015939110792915,1.5404552625803696,1.5018373837485317,1.5046601998040237,0.00015849470216220025,-0.00017689549402318504,0.01225504558424427,0.011947823195372938,0.0003166457899617292
142_86,-0.40759973141030864,-0.4047099125364292,3.046196504860284,2.5228040867422914,2.737406328377773,0.00011341168699686142,0.0001170897502302203,0.0036704373628845123,0.0030712796515321716,0.0011077072930388196
145_176,0.08689758233693728,-0.055564073634420424,-0.25276834304999624,-0.19897119741389024,1.0154875529991365,-0.047272247075935137,0.03423982322084368,0.13699343885862986,0.10772859629810422,0.05230324545244769
146_177,0.39103639834496196,0.3209283780589437,-0.22201560604409623,-0.22459554885680325,0.3014345932230975,0.012109007886798959,0.009938011595496314,-0.006875034487732743,-0.006954926149989205,-0.0005772133746655798
147_146,0.4709395515149092,0.31140750299959646,-0.20458320063528443,-0.1768053454812741,0.24370442951969074,-0.002333251023182482,-0.0015428559199651502,0.0010135992202666216,0.0008759749567036632,0.09843064530281333
149_87,0.9927312330112864,-0.04518445014883887,-0.0898196993071102,0.04091899090056972,0.05198832626096461,-0.004858884604194193,0.011905095743941056,-0.008174695484831724,-0.010477770798350834,-0.003131149481912409
150_149,0.3828473349926883,0.012591810725439967,-0.40082255572832903,-0.28821721111992604,0.5848306566894671,-0.02532986933902078,-0.0008479815652000788,0.02651729087336629,0.019070840311714785,0.015633323012760453
151_149,0.4835081962440938,-0.0330742865324522,-0.3548700644000531,-0.29389590362959866,0.538231427298515,-0.0013416740957509232,9.307677203227935e-05,0.0009847186301778091,0.0008153594801116874,0.011940545483933725
152_149,0.3338941690850963,0.3226947919816703,-0.2382238536726047,-0.2380342777983182,0.3283125023977723,-0.0009536916302541568,-0.0009254911070542284,0.0006816888354724802,0.000681506172502135,0.03526597767543096
153_149,0.8044424442835455,-0.2174380981793954,-0.23279260904711885,-0.16208684878301258,0.4251265039907055,-0.015924818017662806,0.015111725986809238,0.00032208530737505396,-0.001632459670125909,0.04350986262540361
154_149,0.5238187873530494,-0.05415238854066923,-0.32445365869863557,-0.2864181271954617,0.5254678573756592,-0.001578611081644963,0.00016329602637064184,0.0009777862494250607,0.0008631540783280134,0.025827944505945697
155_149,0.9193480113033698,-1.0026177319922096,-0.7324435099397332,-0.39102180461414165,1.096118201209482,-0.008287416171376294,0.015526051253620776,0.007007391881703674,0.002706839461356249,0.016156467032331107
156_123,0.48315444220341663,0.4771876802982657,0.0938208191990702,0.10115124383585546,0.061413249303160056,-0.008012484238350857,-0.008877857928596819,-0.0016501537322813975,-0.0018091477761390678,0.020962806408285413
156_133,-0.9716696937444824,1.8139181160177844,0.3571431680713371,0.5017026721904971,0.24401257014874145,0.004066731336445339,0.009750826768287316,0.0019191659092644823,0.0021118573715078037,-0.022370918703849378
157_156,-0.3078858972092214,0.3087624220184868,2.397550185703257,2.9841114768504986,1.6037600153802354,0.023924644904412356,-0.016266755068956182,-0.15628927951701838,-0.19452538213089982,-0.0501578547136419
158_11,-0.2795896402376077,-0.28472502565673524,-6.320617014629665,3.39210955700577,1.439193040301823,0.009972693545293003,0.009329680067100714,-0.028703559385377456,0.005722995115855826,-0.03028677414462181
158_22,0.03530281905993082,0.9863904691747558,0.10193637978511444,-0.015863441611474488,-0.016255040821977706,-0.03479618789346798,-0.00083760938899494,0.023881657698278033,0.01756414164508452,0.04885987181019881
159_39,0.22915042609362218,-0.03459378032563268,-0.28864289491227024,-0.30106183204747133,0.8087796203058111,-0.02505029068408208,0.007661120043161069,0.031070760264691914,0.03291396427933472,0.025900191305473927
159_62,0.13844437557385758,0.11990056717820341,-0.2223474497850231,-0.21455475775914049,0.7582655443348334,0.05791684040325576,0.04997948027566311,-0.059976921471098954,-0.12152515248469348,-0.14305349446692348
160_62,0.25708148291554067,0.18144290998780246,-0.33447551995182945,-0.020699054466129962,0.5686383189903907,0.04133004096062744,0.029167026645951243,-0.053762502222130686,-0.002040629023292516,-0.08898192611699324
160_181,0.19224037270268063,0.2233111867450311,-0.2521093757231828,-0.23951728221690005,0.5724187388564158,-0.013272961896080133,-0.015418201863452281,0.0174065316799695,0.016537128573061985,0.03822083478025739
161_160,0.2734604261382733,0.280611725862403,0.024436622807792185,-0.3644689419232111,0.44250203123633336,-9.75096687985932e-15,-1.0013500923487536e-14,-1.2749785166804863e-15,1.3002279385661372e-14,2.4540778794075447e-14
162_144,-0.4393781328554207,-1.4249799113510055,16.03547981497751,-0.05803446016889867,4.889885277185376,0.07195125503959897,0.06632479951622858,-0.00471589140230743,0.003627000566830406,-0.1650398173453576
163_111,0.8093147698699533,0.4368229976069102,-8.058376859174043,7.916821804740177,-0.29087894710885,0.003871172578415811,0.0021609076063265186,-0.0397438635836449,0.014919884578097356,-0.007493258251741457
163_179,0.005015812433777619,0.006773746820880032,-0.055462248705819506,-0.05170082046009396,1.1598790555215008,-0.003927225914535759,-0.005303634137975372,0.04342522438222,0.04048014246831063,0.0017845025527038934
164_163,0.00405620678162294,0.004056206781622945,-0.04485142781847853,-0.04485142781847853,1.1623714647307988,0.0,0.0,0.0,0.0,0.0
165_163,0.004056206781631627,0.004056206781625813,-0.044851427818510245,-0.044851427818510245,1.162371464730777,0.0,0.0,0.0,0.0,0.0
166_163,0.004056206781631627,0.004056206781625813,-0.044851427818510245,-0.044851427818510245,1.162371464730777,0.0,0.0,0.0,0.0,0.0
167_163,0.005975057301275219,0.0084226045753567,0.004909685760550848,-0.09404819243245068,1.1532251773775564,-3.367031443523784e-11,-4.7347043456920504e-11,-2.4314850764027117e-11,5.286542426715499e-10,0.00565022041072007
168_163,0.00405620678162294,0.004056206781622945,-0.04485142781847853,-0.04485142781847853,1.1623714647307986,0.0,0.0,0.0,0.0,0.0
169_163,0.00405620678162294,0.004056206781622945,-0.04485142781847853,-0.04485142781847853,1.1623714647307986,0.0,0.0,0.0,0.0,0.0
170_163,-0.9954996609723064,0.008002333761383623,-0.09012051454096526,-0.08957554783779476,2.3194341888086827,-0.007776283564683686,3.071882662197584e-05,-0.00035214819818533364,-0.0003481519647182494,0.01976824650630836
171_190,0.0103096030809125,-0.003362227484491779,-0.11984721119475138,-0.14753145831604525,1.1158027559535706,0.009970128044083704,-0.002901081795368462,-0.11280717169117355,-0.13888555286595092,-0.029560086044728234
173_174,0.007610726002044696,0.00012870620550759371,0.05785401880025701,0.053615104228479295,1.1938801744676868,0.006050867098318195,-0.007612360234073196,0.04602439204504329,0.04264524939399385,-0.003136568763692449
173_175,0.006525362718477354,0.002968401647632355,0.04958899127121888,0.04715573564011879,1.1848108473989885,0.003994562860863325,0.0018171353056255178,0.03035637272373857,0.028866832142728994,0.004793933083643552
174_188,-0.0016781327559272918,0.0060626339848472224,0.07471629004413831,0.07164478174782214,1.1938542172298614,-0.0005938546970463768,0.0021482245797753213,0.026467417566321625,0.025379332375916944,-0.047312647681392025
176_88,-0.9707570757472762,0.4927345937990063,-0.416972885939353,-0.6448790827429904,1.4927404988742485,3.306461022242746e-05,-0.0772061784884967,0.08441988015814345,0.08199141802844048,0.10967529348857519
177_31,-0.7960742632409846,-1.880337445338218,0.9419996343351523,-16.04001234491902,2.816502467292361,-0.12738225225521488,-0.16938303321561987,0.08887799372261933,0.052124006962684,0.36197815246570264
177_58,-11.215889627431675,-3.8902279934545207,8.698076373759505,-16.142253198072538,17.967789168837854,0.3693142763132882,0.12359028158075473,-0.2715809890809088,0.01628246855960852,-0.5859144053526151
179_178,-2.2938442282484512,-3.029868901658341,9.932188152004377,-16.115996558270126,7.324261017320687,-0.12025399630870043,-0.18949436386003804,0.6182848999730086,-0.47802281666720414,0.3595865659772135
180_172,0.02024923871431375,0.05300826634243971,-0.15445505232266338,-0.17142998356277883,1.0584590556161804,0.0069593466278263655,0.018533074623657112,-0.05400909544868426,-0.05994377957136037,-0.05016969378866914
180_191,0.4970079913291302,0.49792151179565886,0.023714224878169987,-0.03691700444165058,0.00402116935821395,0.011120142933520066,-0.02121400606312856,0.14801209307258617,0.10920001230061849,0.05480728889312215
180_199,0.00015691492331570966,0.08595962133023884,-0.18489459576179482,-0.19301439789286187,1.0387133325527345,-0.015400756027299685,0.0208891555050341,-0.04588776512656299,-0.04595060281490745,-0.042687119332958816
181_42,0.3034541386083548,0.040057982452955,-0.32585066480985825,-0.3179684510176398,0.6272706355876113,-0.046284439352663895,-0.007802906625163204,0.04969802207921124,0.04828294360675242,0.07673775222384852
181_194,0.24435249325259456,0.2763857398806845,-0.2620855942770504,-0.23499723486176202,0.45784857415683555,-0.031126371432236108,-0.03520686481887671,0.033385268330668794,0.029934669871750783,0.07710421118256067
182_181,-0.0024365520992073453,0.36607100554382965,-0.40145367096802087,-0.39323023958600273,0.5864944564161235,2.1100003445452716e-05,-0.002484280967387427,0.00272440634866791,0.0026685977440792695,0.019237404031761787
183_181,0.42614951064351647,0.3070206579439123,0.05440029645551314,-0.33163666448094226,0.25219933481864165,-0.0029111539963314857,-0.002096557003652226,-0.0003040294554258879,0.0022642473260051942,0.01504913174762033
185_145,3.5844061885122454,2.3826875108695895,-6.801431602725396,7.833829315389424,-5.402313052660666,0.07027577075766056,0.047168097517823915,-0.13180344160865798,-0.004819050315973114,-0.15148544098661113
185_150,0.18378829114588763,0.27620717113385684,-0.3383730372936624,-0.013074898180554101,0.5527983754595389,-0.09428463805618661,-0.1411992700747084,0.17286731385964443,-0.061640882150926696,0.27266213601320066
186_109,-2.723117142999776e-06,0.8069479534616952,-0.25784790504788196,-0.33852871203992013,0.1642942811777659,3.0125907570163757e-05,0.10578763442721559,-0.03380283130052268,-0.04437975034898054,-0.1082779566353835
187_121,9.379738202383418,17.85672889430163,64.9690422232946,-17.66368785797643,-29.832126573675566,-0.027057786254212235,-0.1533390879924898,-1.0079379397621704,0.15641258271327146,0.21020394964510372
188_89,-0.5655589601236193,-0.3858687209940858,0.27964950490705953,0.4590357430911527,2.356999426367335,0.05332592923836654,-0.08910347836556726,-0.1966187116922154,-0.3394295251097997,0.02853229683854422
188_187,-0.0031008595318942275,0.01703390558325792,-0.04455295242835554,-0.011025224958343629,1.1549721217690299,0.05087174193646882,-0.2775944401998437,0.72603954840694,0.1796682637533956,0.26915091531069724
189_187,-0.006437077421336257,0.7118301121560179,4.831363195341827e-30,-0.4454144020456835,0.3307228023875506,-0.004861691053871242,0.5571012425716073,3.781176180412054e-30,-0.34859847455754606,-0.6265375827471809
192_31,-0.011915849099929154,1.0399952058959663,0.007802007753689309,-0.17503473140741838,-0.05343087367824184,-0.0005774995590624998,0.1919907259239438,0.001339187118126538,-0.03241409196193195,-0.225275018007022
192_107,0.0022110468140824624,0.9791611509244647,0.005647906798200989,-0.0737527654242005,0.015000695338730052,0.001898568600359328,-0.04817088355646102,-0.0004032686067631696,0.0037536418992849064,0.05076555983626041
193_1,-1.0239397369810475,1.783027300427597,0.6079135093306276,0.3427569600676707,0.37854025777360767,-0.0007224122154926849,0.04225747843559034,0.014400186516468946,0.009594258962249205,-0.05035040351687911
194_150,0.3771174887155764,0.35890692000023894,-0.3152428764016474,0.010047873531576879,0.24925851849806913,-0.009893041863800757,-0.008676370658568178,0.007300296839826741,-0.06212682209361772,-0.0011547609798492325
195_171,0.12167822784698018,0.0251909784860464,-0.17190204217502833,-0.24337864580063387,0.9519493746892543,0.09758489472182813,0.016359959283638356,-0.13812330887426835,-0.19545687616458252,-0.15347998909060068
196_195,-10.625858431952887,-9.766837171025362,-7.7611916651760335,-7.7611916651760335,23.651832394850565,0.0,0.0,0.0,0.0,0.0
197_195,-1.0695235089081405,0.4862033203822246,-0.5744227692738236,-0.5744227692738236,1.750523843343253,0.0,0.0,0.0,0.0,0.0
199_25,-0.02262666791443335,0.999434817619183,-0.016674766739288846,0.021629354497296777,0.030450382420115885,0.01967464249200218,0.026706708383675712,-0.045519882645875455,-0.0506178519778767,-0.09428035456694188
199_172,0.15998798571556155,0.06624764885095304,-8.195777316226202,7.77687168954338,1.0015593805303653,0.0035172740512832874,0.003377752093724716,0.11508823398290356,-0.13644686907626977,0.007125013530802228
